Version 4
SHEET 1 1312 680
WIRE 48 128 0 128
WIRE 720 128 576 128
WIRE 288 144 256 144
WIRE 48 160 0 160
WIRE 288 176 256 176
WIRE 720 176 496 176
WIRE 48 192 0 192
WIRE 576 208 576 128
WIRE 160 272 48 272
WIRE 496 304 496 176
WIRE 576 336 576 288
WIRE 496 416 496 384
FLAG 0 128 a
IOPIN 0 128 In
FLAG 0 160 b
IOPIN 0 160 In
FLAG 0 192 c
IOPIN 0 192 In
FLAG 288 176 bet
IOPIN 288 176 Out
FLAG 288 144 alph
IOPIN 288 144 Out
FLAG 576 336 0
FLAG 496 416 0
FLAG 720 128 d
IOPIN 720 128 Out
FLAG 720 176 q
IOPIN 720 176 Out
FLAG 48 272 theta
IOPIN 48 272 In
SYMBOL abc_to_alphabeta 112 160 R0
SYMATTR InstName X1
SYMBOL bv 576 192 R0
SYMATTR InstName B1
SYMATTR Value V={V(alpha)*cos({theta_rad}) + V(beta)*sin({theta_rad})}
SYMBOL bv 496 288 R0
SYMATTR InstName B2
SYMATTR Value V={-V(alpha)*sin({theta_rad}) + V(beta)*cos({theta_rad})
}
TEXT 448 -24 Left 2 ;.param theta = 45
TEXT 448 8 Left 2 ;.param theta_rad = (theta*pi/180)
TEXT 448 40 Left 2 !.param theta = theta_rad
