Version 4
SHEET 1 1068 680
WIRE 560 64 288 64
WIRE 16 80 -48 80
WIRE 16 112 -48 112
WIRE 16 144 -48 144
WIRE 560 144 464 144
WIRE 464 176 464 144
WIRE 288 224 288 64
WIRE 64 240 0 240
WIRE 464 272 464 256
WIRE 288 336 288 304
FLAG -48 80 a
IOPIN -48 80 In
FLAG -48 112 b
IOPIN -48 112 In
FLAG -48 144 c
IOPIN -48 144 In
FLAG 560 144 d
IOPIN 560 144 Out
FLAG 560 64 q
IOPIN 560 64 Out
FLAG 464 272 0
FLAG 288 336 0
FLAG 0 240 theta
IOPIN 0 240 In
SYMBOL abc_to_alphabeta 80 112 R0
SYMATTR InstName X1
SYMBOL bv 464 160 R0
SYMATTR InstName B1
SYMATTR Value V=cos(V(theta))*V(alpha)+sin(V(theta))*V(beta)
SYMBOL bv 288 208 R0
SYMATTR InstName B2
SYMATTR Value V=cos(V(theta))*V(beta)-sin(V(theta))*V(alpha)
