Version 4
SHEET 1 1080 680
WIRE 320 208 288 208
WIRE 528 208 480 208
WIRE 320 256 288 256
WIRE 528 256 480 256
WIRE 320 304 288 304
WIRE 528 304 480 304
FLAG 288 208 d
IOPIN 288 208 In
FLAG 288 256 q
IOPIN 288 256 In
FLAG 528 208 a
IOPIN 528 208 Out
FLAG 528 256 b
IOPIN 528 256 Out
FLAG 528 304 c
IOPIN 528 304 Out
FLAG 288 304 theta
IOPIN 288 304 In
FLAG 320 208 xd
FLAG 320 256 xd
FLAG 480 208 xd
FLAG 480 256 xd
FLAG 480 304 xc
TEXT 248 96 Left 2 !.param xa={(3/2)*(cos(theta)*xd - sin(theta)*xq)}\n.param xb={(3/2)*(cos(theta - 2*pi/3)*xd - sin(theta - 2*pi/3)*xq)}\n.param xc={(3/2)*(cos(theta + 2*pi/3)*xd - sin(theta + 2*pi/3)*xq)}
