Version 4
SHEET 1 880 680
WIRE 128 176 112 176
WIRE 224 176 192 176
FLAG 112 176 a
IOPIN 112 176 In
FLAG 224 176 out
IOPIN 224 176 Out
TEXT 72 96 Left 2 !.param out = k*a
