Version 4
SHEET 1 880 680
WIRE -144 16 -224 16
WIRE 0 32 -80 32
WIRE 32 32 0 32
WIRE 288 32 96 32
WIRE -144 48 -224 48
WIRE 288 48 288 32
WIRE 320 48 288 48
WIRE 448 64 384 64
WIRE 320 80 288 80
WIRE 0 128 0 32
WIRE 32 128 0 128
WIRE 160 128 96 128
WIRE 288 128 288 80
WIRE 288 128 224 128
FLAG -224 16 Ref
IOPIN -224 16 In
FLAG -224 48 Input
IOPIN -224 48 In
FLAG 448 64 Out
IOPIN 448 64 Out
SYMBOL Gain 64 32 R0
WINDOW 39 -31 -48 Left 0
SYMATTR SpiceLine K={R2/R1}
SYMATTR InstName X1
SYMBOL Integral 192 128 R0
SYMATTR InstName X2
SYMBOL Gain 64 128 R0
WINDOW 39 -33 -40 Left 0
SYMATTR SpiceLine K={1/(R1*C)}
SYMATTR InstName X3
SYMBOL adder 352 64 R0
SYMATTR InstName X4
SYMBOL subtractor -112 32 R0
SYMATTR InstName X5
TEXT 416 -96 Left 2 !.param R1 = 1k\n.param R2 = 2.7k\n.param C = 20n
